
#!/usr/bin/env bash
# case.template - create a complete OpenFOAM case (gas-liquid-solid, Euler-Euler)
# Defines: create_case <caseDir>
# Leaves values as @PLACEHOLDER@ to be substituted by `flow pre` from Flowfile

create_case() {
  local caseDir="$1"

  local USE_SOLID="${USE_SOLID:-1}"

  info "Configuration: USE_SOLID=$USE_SOLID"

  # OpenFOAM dictionary header (v2506) to prepend to relevant files
  read -r -d '' HEADER <<'HED'
/*--------------------------------*- C++ -*----------------------------------*\
| =========                 |                                                 |
| \\      /  F ield         | OpenFOAM: The Open Source CFD Toolbox           |
|  \\    /   O peration     | Version:  v2506                                 |
|   \\  /    A nd           | Website:  www.openfoam.com                      |
|    \\/     M anipulation  |                                                 |
\*---------------------------------------------------------------------------*/
HED

  # Directory structure
  mkdir -p "$caseDir/0" "$caseDir/constant" "$caseDir/system"

  # system/controlDict
  cat > "$caseDir/system/controlDict" <<EOF
$HEADER

FoamFile
{
    version     2.0;
    format      ascii;
    class       dictionary;
    location    "system";
    object      controlDict;
}

application     @SOLVER@;

startFrom       startTime;
startTime       @START_TIME@;
stopAt          endTime;
endTime         @END_TIME@;
deltaT          @DELTA_T@;

writeControl    runTime;
writeInterval   @WRITE_INTERVAL@;
purgeWrite      0;
writeFormat     ascii;
writePrecision  7;
writeCompression off;

timePrecision   6;
runTimeModifiable yes;
adjustTimeStep  no;
maxCo           0.5;
maxAlphaCo      0.5;

// ************************************************************************* //
EOF

  # system/fvSchemes
  cat > "$caseDir/system/fvSchemes" <<EOF
$HEADER

FoamFile
{
    version     2.0;
    format      ascii;
    class       dictionary;
    location    "system";
    object      fvSchemes;
}

ddtSchemes
{
    default         Euler;
}

gradSchemes
{
    default         Gauss linear;
}

divSchemes
{
    default         none;

    "div\(phi,alpha.*\)"    Gauss vanLeer;
    "div\(phir,alpha.*,alpha.*\)"   Gauss vanLeer;

    "div\(alphaPhi.*,U.*\)" Gauss limitedLinearV 1;
    div(Rc)                 Gauss linear;
    "div\(phi.*,U.*\)"      Gauss limitedLinearV 1;

    div(phi,k)              Gauss upwind;
    div(phi,omega)          Gauss upwind;

    div(((muEff)*dev2(T(grad(U.liquid))))) Gauss linear;
}

laplacianSchemes
{
    default         Gauss linear orthogonal;
}

interpolationSchemes
{
    default         linear;
}

snGradSchemes
{
    default         orthogonal;
}

fluxRequired
{
    default         yes;
    p;
    p_rgh;
}

wallDist
{
method meshWave;
}

// ************************************************************************* //
EOF

  # system/fvSolution
  cat > "$caseDir/system/fvSolution" <<'EOF'
/*--------------------------------*- C++ -*----------------------------------*\
| =========                 |                                                 |
| \\      /  F ield         | OpenFOAM: The Open Source CFD Toolbox           |
|  \\    /   O peration     | Version:  v2506                                 |
|   \\  /    A nd           | Website:  www.openfoam.com                      |
|    \\/     M anipulation  |                                                 |
\*---------------------------------------------------------------------------*/

FoamFile
{
    version     2.0;
    format      ascii;
    class       dictionary;
    location    "system";
    object      fvSolution;
}

solvers
{
    "alpha.*"
    {
        nAlphaCorr      2;
        nAlphaSubCycles 1;
        cAlpha          1;

        solver          smoothSolver;
        smoother        symGaussSeidel;
        tolerance       1e-08;
        relTol          0;
    }

    p_rgh
    {
        solver          PCG;
        preconditioner  DIC;
        tolerance       1e-06;
        relTol          0.01;
    }

    p_rghFinal
    {
        $p_rgh;
        relTol          0;
    }

    "pcorr.*"
    {
        solver          PCG;
        preconditioner  DIC;
        tolerance       1e-5;
        relTol          0;
    }

    "U.*"
    {
        solver          smoothSolver;
        smoother        symGaussSeidel;
        tolerance       1e-06;
        relTol          0;
    }

    k
    {
        solver          smoothSolver;
        smoother        symGaussSeidel;
        tolerance       1e-06;
        relTol          0;
    }

    kFinal
    {
        $k
        relTol          0;
    }

    omega
    {
        solver          smoothSolver;
        smoother        symGaussSeidel;
        tolerance       1e-06;
        relTol          0;
    }

    omegaFinal
    {
        $omega
        relTol          0;
    }
}

PIMPLE
{
    nOuterCorrectors            1;
    nCorrectors                 2;
    nNonOrthogonalCorrectors    0;

    residualControl
    {
        "U.*"     { tolerance 1e-5; relTol 0;    }

        p_rgh     { tolerance 1e-5; relTol 0.01; }

        "alpha.*" { tolerance 1e-8; relTol 0;    }

        k         { tolerance 1e-5; relTol 0;    }
        omega     { tolerance 1e-5; relTol 0;    }
    }
}

relaxationFactors
{
    fields
    {
        p_rgh   0.3;
    }
    equations
    {
        ".*"    1.0;
    }
}

// ************************************************************************* //
EOF

  # system/blockMeshDict
  cat > "$caseDir/system/blockMeshDict" <<EOF
$HEADER

FoamFile
{
    version     2.0;
    format      ascii;
    class       dictionary;
    location    "system";
    object      blockMeshDict;
}

scale 1.0;

vertices
(
    (0          0           0)
    (@LENGTH@ 0           0)
    (@LENGTH@ @WIDTH@   0)
    (0          @WIDTH@   0)
    (0          0           @HEIGHT@)
    (@LENGTH@ 0           @HEIGHT@)
    (@LENGTH@ @WIDTH@   @HEIGHT@)
    (0          @WIDTH@   @HEIGHT@)
);

blocks
(
    hex (0 1 2 3 4 5 6 7) (@NX@ @NY@ @NZ@) simpleGrading (1 1 1)
);

edges
(
);

patches
(
    patch inlet
    (
        (0 3 2 1)          // bottom face
    )
    patch outlet
    (
        (4 5 6 7)          // top face
    )
    wall walls
    (
        (0 4 7 3)  // left face
        (1 2 6 5)  // right face
        (0 1 5 4)  // front face
        (3 7 6 2)  // back face
    )
);

mergePatchPairs
(
);

// ************************************************************************* //
EOF

  # constant/g
  cat > "$caseDir/constant/g" <<EOF
$HEADER

FoamFile
{
    version     2.0;
    format      ascii;
    class       uniformDimensionedVectorField;
    location    "constant";
    object      g;
}

dimensions      [0 1 -2 0 0 0 0];
value           ( @G_X@ @G_Y@ @G_Z@ );

// ************************************************************************* //
EOF

  # constant/thermophysicalProperties
  if [ "$USE_SOLID" = "1" ]; then
    cat > "$caseDir/constant/thermophysicalProperties" <<EOF
$HEADER

FoamFile
{
    version     2.0;
    format      ascii;
    class       dictionary;
    location    "constant";
    object      thermophysicalProperties;
}

phases
(
    gas
    {
        thermoType
        {
            type            heRhoThermo;
            mixture         pureMixture;
            transport       const;
            thermo          hConst;
            equationOfState perfectGas;
            specie          specie;
            energy          sensibleInternalEnergy;
        }

        mixture
        {
            specie
            {
                molWeight   28.9;
            }
            thermodynamics
            {
                Cp          1005;
                Hf          0;
            }
            transport
            {
                mu          @GAS_MU@;
                Pr          0.7;
            }
        }
    }

    liquid
    {
        thermoType
        {
            type            heRhoThermo;
            mixture         pureMixture;
            transport       const;
            thermo          eConst;
            equationOfState perfectFluid;
            specie          specie;
            energy          sensibleInternalEnergy;
        }

        mixture
        {
            specie
            {
                molWeight   18;
            }
            equationOfState
            {
                R           3000;
                rho0        @LIQUID_RHO@;
            }
            thermodynamics
            {
                Cv          4182;
                Hf          0;
            }
            transport
            {
                mu          @LIQUID_MU@;
                Pr          2.289;
            }
        }
    }

    solid
    {
        thermoType
        {
            type            heRhoThermo;
            mixture         pureMixture;
            transport       const;
            thermo          eConst;
            equationOfState perfectFluid;
            specie          specie;
            energy          sensibleInternalEnergy;
        }

        mixture
        {
            specie
            {
                molWeight   50;
            }
            equationOfState
            {
                R           3000;
                rho0        @SOLID_RHO@;
            }
            thermodynamics
            {
                Cv          1000;
                Hf          0;
            }
            transport
            {
                mu          @SOLID_MU@;
                Pr          1.0;
            }
        }
    }
);

// ************************************************************************* //
EOF
  else
    cat > "$caseDir/constant/thermophysicalProperties" <<EOF
$HEADER

FoamFile
{
    version     2.0;
    format      ascii;
    class       dictionary;
    location    "constant";
    object      thermophysicalProperties;
}

phases
(
    gas
    {
        thermoType
        {
            type            heRhoThermo;
            mixture         pureMixture;
            transport       const;
            thermo          hConst;
            equationOfState perfectGas;
            specie          specie;
            energy          sensibleInternalEnergy;
        }

        mixture
        {
            specie
            {
                molWeight   28.9;
            }
            thermodynamics
            {
                Cp          1005;
                Hf          0;
            }
            transport
            {
                mu          @GAS_MU@;
                Pr          0.7;
            }
        }
    }

    liquid
    {
        thermoType
        {
            type            heRhoThermo;
            mixture         pureMixture;
            transport       const;
            thermo          eConst;
            equationOfState perfectFluid;
            specie          specie;
            energy          sensibleInternalEnergy;
        }

        mixture
        {
            specie
            {
                molWeight   18;
            }
            equationOfState
            {
                R           3000;
                rho0        @LIQUID_RHO@;
            }
            thermodynamics
            {
                Cv          4182;
                Hf          0;
            }
            transport
            {
                mu          @LIQUID_MU@;
                Pr          2.289;
            }
        }
    }
);

// ************************************************************************* //
EOF
  fi

  # constant/transportProperties
  if [ "$USE_SOLID" = "1" ]; then
    cat > "$caseDir/constant/transportProperties" <<EOF
$HEADER

FoamFile
{
    version     2.0;
    format      ascii;
    class       dictionary;
    object      transportProperties;
}

phases
(
    gas
    {
        rho             @GAS_RHO@;
        nu              @GAS_NU@;
        kappa           0;
        Cp              0;

        diameterModel   constant;
        constantCoeffs
        {
            d           @GAS_DIAMETER@;
        }
    }

    liquid
    {
        rho             @LIQUID_RHO@;
        nu              @LIQUID_NU@;
        kappa           0;
        Cp              0;

        diameterModel   constant;
        constantCoeffs
        {
            d           @LIQUID_DIAMETER@;
        }
    }

    solid
    {
        rho             @SOLID_RHO@;
        nu              @SOLID_NU@;
        kappa           0;
        Cp              0;

        diameterModel   constant;
        constantCoeffs
        {
            d           @SOLID_DIAMETER@;
        }
    }
);


sigmas
(
    (gas liquid) @SIGMA_GAS_LIQUID@
    (gas solid)  @SIGMA_GAS_SOLID@
    (liquid solid) @SIGMA_LIQUID_SOLID@
);

interfaceCompression
(
    // Optional interface compression per pair, leave empty to use fvSchemes/method
);

virtualMass
(
    (gas liquid) @VM_GAS_LIQUID@
    (gas solid)  @VM_GAS_SOLID@
    (liquid solid) @VM_LIQUID_SOLID@
);

drag
(
    (gas liquid)
    {
        type blended;
        gas
        {
            type SchillerNaumann;
            residualPhaseFraction 0;
            residualSlip 0;
        }
        liquid
        {
            type SchillerNaumann;
            residualPhaseFraction 0;
            residualSlip 0;
        }
        residualPhaseFraction 1e-3;
        residualSlip          1e-3;
    }

    (solid liquid)
    {
        type SchillerNaumann;
        residualPhaseFraction 1e-6;
        residualSlip          1e-6;
    }
);


// Dummy entries required by some models (safe to leave as is)
transportModel  Newtonian;
nu              0;

// ************************************************************************* //
EOF
  else
    cat > "$caseDir/constant/transportProperties" <<EOF
$HEADER

FoamFile
{
    version     2.0;
    format      ascii;
    class       dictionary;
    object      transportProperties;
}

phases
(
    gas
    {
        rho             @GAS_RHO@;
        nu              @GAS_NU@;
        kappa           0;
        Cp              0;

        diameterModel   constant;
        constantCoeffs
        {
            d           @GAS_DIAMETER@;
        }
    }

    liquid
    {
        rho             @LIQUID_RHO@;
        nu              @LIQUID_NU@;
        kappa           0;
        Cp              0;

        diameterModel   constant;
        constantCoeffs
        {
            d           @LIQUID_DIAMETER@;
        }
    }
);


sigmas
(
    (gas liquid) @SIGMA_GAS_LIQUID@
);

interfaceCompression
(
    // Optional interface compression per pair, leave empty to use fvSchemes/method
);

virtualMass
(
    (gas liquid) @VM_GAS_LIQUID@
);

drag
(
    (gas liquid)
    {
        type blended;
        gas
        {
            type SchillerNaumann;
            residualPhaseFraction 0;
            residualSlip 0;
        }
        liquid
        {
            type SchillerNaumann;
            residualPhaseFraction 0;
            residualSlip 0;
        }
        residualPhaseFraction 1e-3;
        residualSlip          1e-3;
    }
);


// Dummy entries required by some models (safe to leave as is)
transportModel  Newtonian;
nu              0;

// ************************************************************************* //

EOF
  fi

  # constant/turbulenceProperties
  cat > "$caseDir/constant/turbulenceProperties" <<EOF
$HEADER

FoamFile
{
    version     2.0;
    format      ascii;
    class       dictionary;
    location    "constant";
    object      turbulenceProperties;
}

{
    simulationType   RAS;

    RAS
    {
        RASModel        kOmegaSST;
        turbulence      on;
        printCoeffs     on;
    }
}

// ************************************************************************* //
EOF

  ############################
  # 0/ initial fields (alphas, U.* , p, p_rgh, k, omega)
  ############################

  # alpha.gas
  cat > "$caseDir/0/alpha.gas" <<EOF
$HEADER

FoamFile
{
    version     2.0;
    format      ascii;
    class       volScalarField;
    location    "0";
    object      alpha.gas;
}

dimensions      [0 0 0 0 0 0 0];
internalField   uniform @INITIAL_ALPHA_GAS@;

boundaryField
{
    inlet
    {
        type            zeroGradient;
    }
    outlet
    {
        type            zeroGradient;
    }
    walls
    {
        type            zeroGradient;
    }
}

// ************************************************************************* //
EOF

  # alpha.liquid
  cat > "$caseDir/0/alpha.liquid" <<EOF
$HEADER

FoamFile
{
    version     2.0;
    format      ascii;
    class       volScalarField;
    location    "0";
    object      alpha.liquid;
}

dimensions      [0 0 0 0 0 0 0];
internalField   uniform @INITIAL_ALPHA_LIQUID@;

boundaryField
{
    inlet
    {
        type            zeroGradient;
    }
    outlet
    {
        type            zeroGradient;
    }
    walls
    {
        type            zeroGradient;
    }
}

// ************************************************************************* //
EOF

  if [ "$USE_SOLID" = "1" ]; then
    # alpha.solid
    cat > "$caseDir/0/alpha.solid" <<EOF
$HEADER

FoamFile
{
    version     2.0;
    format      ascii;
    class       volScalarField;
    location    "0";
    object      alpha.solid;
}

dimensions      [0 0 0 0 0 0 0];
internalField   uniform @INITIAL_ALPHA_SOLID@;

boundaryField
{
    inlet
    {
        type            zeroGradient;
    }
    outlet
    {
        type            zeroGradient;
    }
    walls
    {
        type            zeroGradient;
    }
}

// ************************************************************************* //
EOF
  fi

  # U.gas
  cat > "$caseDir/0/U.gas" <<EOF
$HEADER

FoamFile
{
    version     2.0;
    format      ascii;
    class       volVectorField;
    location    "0";
    object      U.gas;
}

dimensions      [0 1 -1 0 0 0 0];
internalField   uniform (0 0 0);

boundaryField
{
    inlet
    {
        type            fixedValue;
        value           uniform @GAS_INLET_VEL@;
    }
    outlet
    {
        type            zeroGradient;
    }
    walls
    {
        type            fixedValue;
        value           uniform (0 0 0);
    }
}

// ************************************************************************* //
EOF

  # U.liquid
  cat > "$caseDir/0/U.liquid" <<EOF
$HEADER

FoamFile
{
    version     2.0;
    format      ascii;
    class       volVectorField;
    location    "0";
    object      U.liquid;
}

dimensions      [0 1 -1 0 0 0 0];
internalField   uniform (0 0 0);

boundaryField
{
    inlet
    {
        type            fixedValue;
        value           uniform (0 0 0);
    }
    outlet
    {
        type            zeroGradient;
    }
    walls
    {
        type            fixedValue;
        value           uniform (0 0 0);
    }
}

// ************************************************************************* //
EOF

  if [ "$USE_SOLID" = "1" ]; then
    # U.solid
    cat > "$caseDir/0/U.solid" <<EOF
$HEADER

FoamFile
{
    version     2.0;
    format      ascii;
    class       volVectorField;
    location    "0";
    object      U.solid;
}

dimensions      [0 1 -1 0 0 0 0];
internalField   uniform (0 0 0);

boundaryField
{
    inlet
    {
        type            fixedValue;
        value           uniform (0 0 0);
    }
    outlet
    {
        type            zeroGradient;
    }
    walls
    {
        type            fixedValue;
        value           uniform (0 0 0);
    }
}

// ************************************************************************* //
EOF
  fi

  # 0/nut (turbulent kinematic viscosity for RAS)
  cat > "$caseDir/0/nut" <<EOF
$HEADER

FoamFile
{
    version     2.0;
    format      ascii;
    class       volScalarField;
    location    "0";
    object      nut;
}

dimensions      [0 2 -1 0 0 0 0];
internalField   uniform @NUT_INIT@;

boundaryField
{
    inlet
    {
        type            calculated;
        value           uniform @NUT_INIT@;
    }
    outlet
    {
        type            zeroGradient;
    }
    walls
    {
        type            nutkWallFunction;
        value           uniform @NUT_INIT@;
    }
}

// ************************************************************************* //
EOF

  # p
  cat > "$caseDir/0/p" <<EOF
$HEADER

FoamFile
{
    version     2.0;
    format      ascii;
    class       volScalarField;
    location    "0";
    object      p;
}

dimensions      [1 -1 -2 0 0 0 0];
internalField   uniform 0;

boundaryField
{
    inlet
    {
        type            zeroGradient;
    }
    outlet
    {
        type            fixedValue;
        value           uniform 0;
    }
    walls
    {
        type            zeroGradient;
    }
}

// ************************************************************************* //
EOF

  # p_rgh
  cat > "$caseDir/0/p_rgh" <<EOF
$HEADER

FoamFile
{
    version     2.0;
    format      ascii;
    class       volScalarField;
    location    "0";
    object      p_rgh;
}

dimensions      [1 -1 -2 0 0 0 0];
internalField   uniform 0;

boundaryField
{
    inlet
    {
        type            fixedFluxPressure;
        value           uniform 0;
    }
    outlet
    {
        type            prghPressure;
        p               uniform 0;
        value           uniform 0;
    }
    walls
    {
        type            fixedFluxPressure;
        value           uniform 0;
    }
}

// ************************************************************************* //
EOF

  # k (turbulent kinetic energy, liquid phase RANS support)
  cat > "$caseDir/0/k" <<EOF
$HEADER

FoamFile
{
    version     2.0;
    format      ascii;
    class       volScalarField;
    location    "0";
    object      k;
}

dimensions      [0 2 -2 0 0 0 0];
internalField   uniform @K_INIT@;

boundaryField
{
    inlet
    {
        type            fixedValue;
        value           uniform @K_INIT@;
    }
    outlet
    {
        type            zeroGradient;
    }
    walls
    {
        type            kqRWallFunction;
        value           uniform @K_INIT@;
    }
}

// ************************************************************************* //
EOF

  # omega (specific dissipation rate)
  cat > "$caseDir/0/omega" <<EOF
$HEADER

FoamFile
{
    version     2.0;
    format      ascii;
    class       volScalarField;
    location    "0";
    object      omega;
}

dimensions      [0 0 -1 0 0 0 0];
internalField   uniform @OMEGA_INIT@;

boundaryField
{
    inlet
    {
        type            fixedValue;
        value           uniform @OMEGA_INIT@;
    }
    outlet
    {
        type            zeroGradient;
    }
    walls
    {
        type            omegaWallFunction;
        value           uniform @OMEGA_INIT@;
    }
}

// ************************************************************************* //
EOF

  # system/setFieldsDict - CONDITIONAL
  if [ "$USE_SOLID" = "1" ]; then
  # Three-phase version with algae
  cat > "$caseDir/system/setFieldsDict" <<EOF
$HEADER
FoamFile
{
    version     2.0;
    format      ascii;
    class       dictionary;
    location    "system";
    object      setFieldsDict;
}

// Default: empty reactor
defaultFieldValues
(
    volScalarFieldValue alpha.gas 0.0
    volScalarFieldValue alpha.liquid 1.0
    volScalarFieldValue alpha.solid 0.0
    volScalarFieldValue p_rgh 0
);

regions
(
    // Main liquid region (70% of reactor height)
    boxToCell
    {
        box (0 0 0) (@LENGTH@ @WIDTH@ @LIQUID_LEVEL@);
        fieldValues
        (
            volScalarFieldValue alpha.gas @HOLDUP_INITIAL@
            volScalarFieldValue alpha.liquid @LIQUID_FRAC_MAIN@
            volScalarFieldValue alpha.solid @INITIAL_ALPHA_SOLID@
            // Average hydrostatic pressure for this region
            volScalarFieldValue p_rgh @P_RGH_LIQUID@
        );
    }

    // Gas headspace at top
    boxToCell
    {
        box (0 0 @LIQUID_LEVEL@) (@LENGTH@ @WIDTH@ @HEIGHT@);
        fieldValues
        (
            volScalarFieldValue alpha.gas 1.0
            volScalarFieldValue alpha.liquid 0.0
            volScalarFieldValue alpha.solid 0.0
            volScalarFieldValue p_rgh 0
        );
    }

    // Bottom pressure gradient layers (approximates hydrostatic)
    // Layer 1: Bottom 25%
    boxToCell
    {
        box (0 0 0) (@LENGTH@ @WIDTH@ @BOTTOM_LAYER@);
        fieldValues
        (
            volScalarFieldValue p_rgh @P_RGH_BOTTOM@
        );
    }

    // Layer 2: Middle 25-50%
    boxToCell
    {
        box (0 0 @BOTTOM_LAYER@) (@LENGTH@ @WIDTH@ @MIDDLE_LAYER@);
        fieldValues
        (
            volScalarFieldValue p_rgh @P_RGH_MIDDLE@
        );
    }
);

// ************************************************************************* //
EOF
  else
    # Two-phase version (no solid)
    cat > "$caseDir/system/setFieldsDict" <<EOF
$HEADER
FoamFile
{
    version     2.0;
    format      ascii;
    class       dictionary;
    location    "system";
    object      setFieldsDict;
}

// Default: empty reactor
defaultFieldValues
(
    volScalarFieldValue alpha.gas 0.0
    volScalarFieldValue alpha.liquid 1.0
    volScalarFieldValue p_rgh 0
);

regions
(
    // Main liquid region (70% of reactor height)
    boxToCell
    {
        box (0 0 0) (@LENGTH@ @WIDTH@ @LIQUID_LEVEL@);
        fieldValues
        (
            volScalarFieldValue alpha.gas @HOLDUP_INITIAL@
            volScalarFieldValue alpha.liquid @LIQUID_FRAC_NOPHASE@
            // Average hydrostatic pressure for this region
            volScalarFieldValue p_rgh @P_RGH_LIQUID@
        );
    }

    // Gas headspace at top
    boxToCell
    {
        box (0 0 @LIQUID_LEVEL@) (@LENGTH@ @WIDTH@ @HEIGHT@);
        fieldValues
        (
            volScalarFieldValue alpha.gas 1.0
            volScalarFieldValue alpha.liquid 0.0
            volScalarFieldValue p_rgh 0
        );
    }

    // Bottom pressure gradient layers (approximates hydrostatic)
    // Layer 1: Bottom 25%
    boxToCell
    {
        box (0 0 0) (@LENGTH@ @WIDTH@ @BOTTOM_LAYER@);
        fieldValues
        (
            volScalarFieldValue p_rgh @P_RGH_BOTTOM@
        );
    }

    // Layer 2: Middle 25-50%
    boxToCell
    {
        box (0 0 @BOTTOM_LAYER@) (@LENGTH@ @WIDTH@ @MIDDLE_LAYER@);
        fieldValues
        (
            volScalarFieldValue p_rgh @P_RGH_MIDDLE@
        );
    }
);

// ************************************************************************* //
EOF
  fi

  # Allrun
  cat > "$caseDir/Allrun" <<'EOF'
#!/usr/bin/env bash
# Allrun - generic run driver (requires OpenFOAM environment)

cd "${0%/*}" || exit 1

if [ -z "$WM_PROJECT_DIR" ]; then
  echo "Error: OpenFOAM environment not loaded. Source your OpenFOAM bashrc first."
  exit 1
fi

# Check if mesh exists
if [ ! -d "constant/polyMesh" ]; then
  echo "Error: No mesh found. Run Allmesh first."
  exit 1
fi

echo "[Allrun] @SOLVER@"
# Read number of cores from decomposeParDict
NCORES=@NCORES@

if [ "$NCORES" -gt 1 ]; then
  echo "Running parallel on $NCORES cores..."

  # Decompose the domain
  if [ ! -d "processor0" ]; then
    echo "Decomposing mesh..."
    decomposePar || { echo "decomposePar failed"; exit 1; }
  fi

  # Run in parallel
  echo "Starting parallel run..."
  mpirun -np $NCORES @SOLVER@ -parallel || { echo "Solver failed"; exit 1; }

  # Reconstruct results
  echo "Reconstructing results..."
  reconstructPar || echo "Warning: reconstruct failed"
else
  echo "Running serial..."
  @SOLVER@ || { echo "Solver failed"; exit 1; }
fi
EOF
  chmod +x "$caseDir/Allrun"

  # --- ensure triSurface folder exists ---
  mkdir -p "$caseDir/constant/triSurface"

  # system/snappyHexMeshDict
  cat > "$caseDir/system/snappyHexMeshDict" <<EOF
$HEADER

FoamFile
{
    version     2.0;
    format      ascii;
    arch        "LSB;label=32;scalar=64";
    class       dictionary;
    location    "system";
    object      snappyHexMeshDict;
}

// Required by v2506 (top-level)
castellatedMesh     true;
snap                true;
addLayers           false;
mergeTolerance      1e-6;

geometry
{
    pbr_fluid.stl
    {
        type triSurfaceMesh;
        name pbr;
    }

    inletBox
    {
        type searchableBox;
        min (0 0 0);
        max (@LENGTH@ @WIDTH@ @INLET_BOX_Z@);
    }
}

castellatedMeshControls
{
    maxLocalCells           @MAX_LOCAL_CELLS@;
    maxGlobalCells          @MAX_GLOBAL_CELLS@;
    minRefinementCells      @MIN_REFINEMENT_CELLS@;
    nCellsBetweenLevels     @N_CELLS_BETWEEN_LEVELS@;

    features                ();     // no explicit feature edges required

    refinementSurfaces
    {
        pbr
        {
            level (@SURFACE_LEVEL_MIN@ @SURFACE_LEVEL_MAX@);

            // Optional: create zones (handy if you want to address faces later)
            faceZone        pbrFaces;
            cellZone        pbrCells;
            cellZoneInside  inside;

            patchInfo
            {
                type wall;
            }
        }
    }

    refinementRegions
    {
        inletBox
        {
            mode inside;
            // very large distance selects the whole box
            levels ((1e15 @INLET_BOX_LEVEL@));
        }
    }

    resolveFeatureAngle     @RESOLVE_FEATURE_ANGLE@;

    // MUST be inside the STL fluid volume
    locationInMesh (@LIM_X@ @LIM_Y@ @LIM_Z@);

    allowFreeStandingZoneFaces true;
}

snapControls
{
    nSmoothPatch            3;
    tolerance               2.0;
    nSolveIter              30;
    nRelaxIter              5;

    // optional (can improve snapping on curved cylinders)
    implicitFeatureSnap     true;
    explicitFeatureSnap     false;
    multiRegionSnap         false;
}

addLayersControls
{
    relativeSizes   true;
    layers          {};
    nSurfaceLayers  0;
}

meshQualityControls
{
    maxNonOrtho             40;
    maxBoundarySkewness     10;
    maxInternalSkewness     2;
    maxConcave              80;
    minVol                  1e-15;
    minTetQuality           1e-12;
    minArea                 1e-15;
    minTwist                0.05;
    minDeterminant          0.001;
    minFaceWeight           0.05;